% Physical governing equations (EULER, NAVIER_STOKES, 
% WAVE_EQUATION, HEAT_EQUATION, FEM_ELASTICITY, 
% POISSON_EQUATION)
SOLVER= RANS

KIND_TURB_MODEL = SA

KIND_TRANS_MODEL = NONE

FREESTREAM_TURBULENCEINTENSITY = 0.0015

RESTART_SOL = NO

MACH_NUMBER = 0.21

AOA = 7.7

SIDESLIP_ANGLE = 0.0

FREESTREAM_TEMPERATURE = 287.15

GAS_CONSTANT = 287.058

FLUID_MODEL = STANDARD_AIR

GAMMA_VALUE = 1.4

REYNOLDS_NUMBER = 2200000.0

REYNOLDS_LENGTH = 1

VISCOSITY_MODEL = CONSTANT_VISCOSITY

MU_CONSTANT = 1.853e-05

MU_T_REF = 273.15

SUTHERLAND_CONSTANT = 110.4

CONDUCTIVITY_MODEL = CONSTANT_PRANDTL

PRANDTL_LAM = 0.72

PRANDTL_TURB = 0.9

REF_ORIGIN_MOMENT_X = 0.25

REF_ORIGIN_MOMENT_Y = 0.00

REF_ORIGIN_MOMENT_Z = 0.00

REF_LENGTH = 1.0

REF_AREA = 0

CFL_NUMBER = 500.0

CFL_ADAPT = NO

CFL_ADAPT_PARAM = ( 0.999, 100 , 100.0, 1e5 )

ITER = 2000

CONV_NUM_METHOD_FLOW = JST

MUSCL_FLOW = YES

SLOPE_LIMITER_FLOW = VENKATAKRISHNAN

VENKAT_LIMITER_COEFF = 0.05

JST_SENSOR_COEFF = ( 0.5, 0.02 )

CONV_FIELD = (LIFT, DRAG, RMS_DENSITY)

CONV_RESIDUAL_MINVAL = -3

CONV_STARTITER = 1000

CONV_CAUCHY_ELEMS = 200

CONV_CAUCHY_EPS = 5e-3

MESH_FILENAME = Test.su2

SCREEN_OUTPUT = (INNER_ITER, WALL_TIME, RMS_DENSITY, RMS_NU_TILDE, LIFT, DRAG, AVG_CFL)

HISTORY_OUTPUT = (ITER, WALL_TIME, RMS_RES, AERO_COEFF, CAUCHY)

OUTPUT_FILES = (RESTART, PARAVIEW, SURFACE_PARAVIEW, SURFACE_CSV)

TABULAR_FORMAT = CSV

SCREEN_WRT_FREQ_INNER = 50

OUTPUT_WRT_FREQ = 100

% Mathematical problem(DIRECT, CONTINUOUS_ADJOINT)
MATH_PROBLEM = DIRECT
% Init option to choose between Reynolds(default) or thermodynamics quantities
% for initializing the solution (REYNOLDS, TD_CONDITIONS)
INIT_OPTION = REYNOLDS
% Free - stream option to choose between density and temperature(default) for
% initializing the solution(TEMPERATURE_FS, DENSITY_FS)
FREESTREAM_OPTION = TEMPERATURE_FS
% Compressible flow non - dimensionalization(DIMENSIONAL, FREESTREAM_PRESS_EQ_ONE,
% FREESTREAM_VEL_EQ_MACH, FREESTREAM_VEL_EQ_ONE)
REF_DIMENSIONALIZATION = DIMENSIONAL
% --------------------------- LIFT DRIVER MODE --------------------------------%
FIXED_CL_MODE = NO

TARGET_CL = 0.8501

DCL_DALPHA = 0.2

UPDATE_AOA_ITER_LIMIT = 100

ITER_DCL_DALPHA = 500

EVAL_DOF_DCX = NO


% THE FOLLOWING VARIABLES WERE NOT DEFINED IN INPUT BY USER, BUT DEFINED AS DEFAULT.
% -------------------- TURBULENT NUMERICAL METHOD DEFINITION ------------------%
% Convective numerical method (SCALAR_UPWIND)
CONV_NUM_METHOD_TURB = SCALAR_UPWIND
% ------------- COMMON PARAMETERS DEFINING THE NUMERICAL METHOD ---------------%
% Numerical method for spatial gradients (GREEN_GAUSS, WEIGHTED_LEAST_SQUARES)
NUM_METHOD_GRAD = WEIGHTED_LEAST_SQUARES
% Time discretization (RUNGE-KUTTA_EXPLICIT, EULER_IMPLICIT, EULER_EXPLICIT)
TIME_DISCRE_FLOW = EULER_IMPLICIT
% ------------------------ LINEAR SOLVER DEFINITION ---------------------------%
% Linear solver for the implicit (or discrete adjoint) formulation (BCGSTAB, FGMRES)
LINEAR_SOLVER= FGMRES
% Preconditioner of the Krylov linear solver (NONE, JACOBI, LINELET)
LINEAR_SOLVER_PREC= ILU
% Min error of the linear solver for the implicit formulation
LINEAR_SOLVER_ERROR= 1E-8
% Max number of iterations of the linear solver for the implicit formulation
LINEAR_SOLVER_ITER= 10
% -------------------- BOUNDARY CONDITION DEFINITION --------------------------%
% Navier-Stokes wall boundary marker(s) (NONE = no marker)
MARKER_HEATFLUX= ( airfoil1, 0.0, airfoil2, 0.0 )

% Marker(s) of the surface to be plotted or designed
MARKER_PLOTTING= ( airfoil1, airfoil2 )

% Marker(s) of the surface where the functional (Cd, Cl, etc.) will be evaluated
MARKER_MONITORING= ( airfoil1, airfoil2 )

% Farfield boundary marker(s) (NONE = no marker)
MARKER_FAR= ( farfield )

% ------------------------- INPUT / OUTPUT INFORMATION --------------------------- %
% Mesh input file format(SU2, CGNS, NETCDF_ASCII)
MESH_FORMAT = SU2

% Mesh output file
MESH_OUT_FILENAME = mesh_out.su2

% Restart flow input file
SOLUTION_FILENAME = solution_flow.dat

% Output file convergence history(w / o extension)
CONV_FILENAME = history

% Output file restart flow
RESTART_FILENAME = restart_flow.dat

% Output file flow(w / o extension) variables
VOLUME_FILENAME = flow

% Output file surface flow coefficient(w / o extension)
SURFACE_FILENAME = surface_flow

WRT_FORCES_BREAKDOWN = YES
% Output file with the forces breakdown
BREAKDOWN_FILENAME = forces_breakdown.dat

% Writing frequency for history output
HISTORY_WRT_FREQ_INNER = 1

